SetFactory("OpenCASCADE");
//+
Include "/home/ignace/Documents/PhD/TELEMAC/Playing_Around/First_Steps/Test_Cases/input/v3/Churute_Subregion_hole_1.msh ";
Include "/home/ignace/Documents/PhD/TELEMAC/Playing_Around/First_Steps/Test_Cases/input/v3/Churute_Subregion_hole_2.msh ";
Coherence Mesh;